FoamFile
{
    version 2.0;
    format ascii;
    class dictionary;
    object mechanicalProperties;
}
planeStress no;
mechanical
(
    arteryWall
    {
        type GultekinTwoFibreElastic;
        rho rho [1 -3 0 0 0 0 0] 1000;
        mu mu [1 -1 -2 0 0 0 0] 10000;
        k1 k1 [1 -1 -2 0 0 0 0] 500000;
        k2 k2 [0 0 0 0 0 0 0] 2;
        bulkModulus K [1 -1 -2 0 0 0 0] 5000000;
        fibreField1 f0;
        fibreField2 f1;
        faceFibreField1 f0f;
        faceFibreField2 f1f;
        anisotropicSplit false;
        fibresTensionOnly false;
        useSecondFibreFamily true;
        implicitShearModulus implicitShearModulus [1 -1 -2 0 0 0 0] 2010000;
        impKcoeff 1;
        fibreUnitTolerance 1e-6;
        clipExponent false;
        exponentLimit 650;
        writeDiagnostics true;
    }
);
